19
Comment
C           0.22871        1.58020       -0.10202
C           0.15277        0.11464       -0.03754
C           0.09162       -1.09501        0.00778
C           0.00894       -2.55449        0.08143
C          -0.22130       -3.20745        1.46442
O          -1.32929       -3.98737        0.95567
C          -1.32685       -3.24691       -0.29595
C          -2.56073       -2.36987       -0.38443
O          -3.73031       -3.17521       -0.36878
H           1.14053        1.89808       -0.62622
H          -0.63927        1.98745       -0.63914
H           0.24180        2.01125        0.90868
H           0.85658       -3.00862       -0.44785
H           0.58614       -3.84944        1.84361
H          -0.54201       -2.49972        2.24396
H          -1.28383       -3.93819       -1.15110
H          -2.56586       -1.64472        0.44807
H          -2.56269       -1.80931       -1.33038
H          -3.67307       -3.73340        0.41776